  
       XFOIL         Version 6.99
  
 Calculated polar for: ppar                                            
  
 1 1 Reynolds number fixed          Mach number fixed         
  
 xtrf =   1.000 (top)        1.000 (bottom)  
 Mach =   0.000     Re =     0.000 e 6     Ncrit =   9.000
  
   alpha    CL        CD       CDp       CM     Top_Xtr  Bot_Xtr
  ------ -------- --------- --------- -------- -------- --------
   0.000   0.5955   0.00000  -0.00169  -0.1423   0.0000   0.0000
   1.000   0.7190   0.00000  -0.00176  -0.1439   0.0000   0.0000
   2.000   0.8421   0.00000  -0.00184  -0.1455   0.0000   0.0000
   3.000   0.9651   0.00000  -0.00192  -0.1470   0.0000   0.0000
  -3.000   0.2244   0.00000  -0.00152  -0.1368   0.0000   0.0000
  -2.000   0.3482   0.00000  -0.00157  -0.1387   0.0000   0.0000
  -1.000   0.4720   0.00000  -0.00162  -0.1405   0.0000   0.0000
  -0.000   0.5955   0.00000  -0.00169  -0.1423   0.0000   0.0000
   1.000   0.7190   0.00000  -0.00176  -0.1439   0.0000   0.0000
   2.000   0.8421   0.00000  -0.00184  -0.1455   0.0000   0.0000
   3.000   0.9651   0.00000  -0.00192  -0.1470   0.0000   0.0000
   4.000   1.0877   0.00000  -0.00201  -0.1484   0.0000   0.0000
   5.000   1.2100   0.00000  -0.00211  -0.1497   0.0000   0.0000
   6.000   1.3320   0.00000  -0.00221  -0.1510   0.0000   0.0000
   7.000   1.4535   0.00000  -0.00232  -0.1521   0.0000   0.0000
   8.000   1.5746   0.00000  -0.00244  -0.1531   0.0000   0.0000
   9.000   1.6953   0.00000  -0.00256  -0.1541   0.0000   0.0000
  10.000   1.8154   0.00000  -0.00269  -0.1550   0.0000   0.0000
