  
       XFOIL         Version 6.99
  
 Calculated polar for: pane                                            
  
 1 1 Reynolds number fixed          Mach number fixed         
  
 xtrf =   1.000 (top)        1.000 (bottom)  
 Mach =   0.000     Re =    31.000 e 6     Ncrit =   9.000
  
   alpha    CL        CD       CDp       CM     Top_Xtr  Bot_Xtr
  ------ -------- --------- --------- -------- -------- --------
 -12.172  -1.0000   0.00857   0.00484  -0.0880   0.8436   0.0203
 -11.390  -0.9000   0.00810   0.00435  -0.0918   0.8212   0.0204
 -10.610  -0.8000   0.00772   0.00393  -0.0954   0.7924   0.0211
  -9.831  -0.7000   0.00741   0.00356  -0.0990   0.7453   0.0248
  -9.065  -0.6000   0.00705   0.00318  -0.1028   0.7056   0.0292
  -8.289  -0.5000   0.00682   0.00289  -0.1061   0.6657   0.0323
  -7.525  -0.4000   0.00651   0.00260  -0.1097   0.6433   0.0403
  -6.743  -0.3000   0.00642   0.00242  -0.1127   0.5850   0.0462
  -5.950  -0.2000   0.00661   0.00230  -0.1154   0.4467   0.0502
  -5.155  -0.1000   0.00667   0.00220  -0.1179   0.3702   0.0506
  -4.359  -0.0000   0.00678   0.00213  -0.1204   0.2879   0.0560
  -3.569   0.1000   0.00688   0.00208  -0.1229   0.2003   0.0706
  -2.779   0.2000   0.00691   0.00205  -0.1254   0.1503   0.0946
  -1.994   0.3000   0.00689   0.00203  -0.1279   0.1236   0.1302
  -1.194   0.4000   0.00696   0.00207  -0.1300   0.0962   0.1582
   0.401   0.6000   0.00709   0.00225  -0.1343   0.0510   0.2701
   1.183   0.7000   0.00700   0.00235  -0.1369   0.0477   0.3837
   1.992   0.8000   0.00708   0.00251  -0.1386   0.0406   0.4540
   2.807   0.9000   0.00716   0.00268  -0.1402   0.0395   0.5223
   3.647   1.0000   0.00739   0.00291  -0.1410   0.0391   0.5447
